118bpa.dat
(POWERFLOW,CASEID=EMS,PROJECT=TEST)
/P_INPUT_LIST,FULL\
/P_OUTPUT_LIST,FULL\
/P_ANALYSIS_RPT,LEVEL=4\
/TOLERANCE,AIPOWER=0.0001,Q=0.0001\
/SOL_ITER,DECOUPLED=2,CURRENT=0,NEWTON=30\
/NETWORK_DATA\
.234567890*234567890*234567890*234567890*234567890*234567890*234567890*234567890
BQ    bus-1    100 151.  27.                   15.  -5.  0955                                                                                                                                                                                                                                              
B     bus-2    100 120.  9.                                                                                                                                                                                                                                                                                
B     bus-3    100 139.  10.                                                                                                                                                                                                                                                                               
BQ    bus-4    100 130.  12.              -9.  300. -300.0998                                                                                                                                                                                                                                              
B     bus-5    100 1              -40.                                                                                                                                                                                                                                                                     
BQ    bus-6    100 152.  22.                   50.  -13. 0990                                                                                                                                                                                                                                              
B     bus-7    100 119.  2.                                                                                                                                                                                                                                                                                
BQ    bus-8    100 1                      -28. 300. -300.1015                                                                                                                                                                                                                                              
B     bus-9    100 1                                                                                                                                                                                                                                                                                       
BQ    bus-10   100 1                      450. 200. -147.1050                                                                                                                                                                                                                                              
B     bus-11   100 170.  23.                                                                                                                                                                                                                                                                               
BQ    bus-12   100 147.  10.              85.  120. -35. 0990                                                                                                                                                                                                                                              
B     bus-13   100 134.  16.                                                                                                                                                                                                                                                                               
B     bus-14   100 114.  1.                                                                                                                                                                                                                                                                                
BQ    bus-15   100 190.  30.                   30.  -10. 0970                                                                                                                                                                                                                                              
B     bus-16   100 125.  10.                                                                                                                                                                                                                                                                               
B     bus-17   100 111.  3.                                                                                                                                                                                                                                                                                
BQ    bus-18   100 160.  34.                   50.  -16. 0973                                                                                                                                                                                                                                              
BQ    bus-19   100 145.  25.                   24.  -8.  0962                                                                                                                                                                                                                                              
B     bus-20   100 118.  3.                                                                                                                                                                                                                                                                                
B     bus-21   100 114.  8.                                                                                                                                                                                                                                                                                
B     bus-22   100 110.  5.                                                                                                                                                                                                                                                                                
B     bus-23   100 17.   3.                                                                                                                                                                                                                                                                                
BQ    bus-24   100 1                      -13. 300. -300.0992                                                                                                                                                                                                                                              
BQ    bus-25   100 1                      220. 140. -47. 1050                                                                                                                                                                                                                                              
BQ    bus-26   100 1                      314. 1000.-10001015                                                                                                                                                                                                                                              
BQ    bus-27   100 162.  13.              -9.  300. -300.0968                                                                                                                                                                                                                                              
B     bus-28   100 117.  7.                                                                                                                                                                                                                                                                                
B     bus-29   100 124.  4.                                                                                                                                                                                                                                                                                
B     bus-30   100 1                                                                                                                                                                                                                                                                                       
BQ    bus-31   100 143.  27.              7.   300. -300.0967                                                                                                                                                                                                                                              
BQ    bus-32   100 159.  23.                   42.  -14. 0963                                                                                                                                                                                                                                              
B     bus-33   100 123.  9.                                                                                                                                                                                                                                                                                
BQ    bus-34   100 159.  26.      14.          24.  -8.  0984                                                                                                                                                                                                                                              
B     bus-35   100 133.  9.                                                                                                                                                                                                                                                                                
BQ    bus-36   100 131.  17.                   24.  -8.  0980                                                                                                                                                                                                                                              
B     bus-37   100 1              -25.                                                                                                                                                                                                                                                                     
B     bus-38   100 1                                                                                                                                                                                                                                                                                       
B     bus-39   100 127.  11.                                                                                                                                                                                                                                                                               
BQ    bus-40   100 120.  23.              -46. 300. -300.0970                                                                                                                                                                                                                                              
B     bus-41   100 137.  10.                                                                                                                                                                                                                                                                               
BQ    bus-42   100 137.  23.              -59. 300. -300.0985                                                                                                                                                                                                                                              
B     bus-43   100 118.  7.                                                                                                                                                                                                                                                                                
B     bus-44   100 116.  8.       10.                                                                                                                                                                                                                                                                      
B     bus-45   100 153.  22.      10.                                                                                                                                                                                                                                                                      
BQ    bus-46   100 128.  10.      10.     19.  100. -100.1005                                                                                                                                                                                                                                              
B     bus-47   100 134.                                                                                                                                                                                                                                                                                    
B     bus-48   100 120.  11.      15.                                                                                                                                                                                                                                                                      
BQ    bus-49   100 187.  30.              204. 210. -85. 1025                                                                                                                                                                                                                                              
B     bus-50   100 117.  4.                                                                                                                                                                                                                                                                                
B     bus-51   100 117.  8.                                                                                                                                                                                                                                                                                
B     bus-52   100 118.  5.                                                                                                                                                                                                                                                                                
B     bus-53   100 123.  11.                                                                                                                                                                                                                                                                               
BQ    bus-54   100 1113. 32.              48.  300. -300.0955                                                                                                                                                                                                                                              
BQ    bus-55   100 163.  22.                   23.  -8.  0952                                                                                                                                                                                                                                              
BQ    bus-56   100 184.  18.                   15.  -8.  0954                                                                                                                                                                                                                                              
B     bus-57   100 112.  3.                                                                                                                                                                                                                                                                                
B     bus-58   100 112.  3.                                                                                                                                                                                                                                                                                
BQ    bus-59   100 1277. 113.             155. 180. -60. 0985                                                                                                                                                                                                                                              
B     bus-60   100 178.  3.                                                                                                                                                                                                                                                                                
BQ    bus-61   100 1                      160. 300. -100.0995                                                                                                                                                                                                                                              
BQ    bus-62   100 177.  14.                   20.  -20. 0998                                                                                                                                                                                                                                              
B     bus-63   100 1                                                                                                                                                                                                                                                                                       
B     bus-64   100 1                                                                                                                                                                                                                                                                                       
BQ    bus-65   100 1                      391. 200. -67. 1005                                                                                                                                                                                                                                              
BQ    bus-66   100 139.  18.              392. 200. -67. 1050                                                                                                                                                                                                                                              
B     bus-67   100 128.  7.                                                                                                                                                                                                                                                                                
B     bus-68   100 1                                                                                                                                                                                                                                                                                       
BS    bus-69   100 1                      513.8300. -300.103530.0                                                                                                                                                                                                                                          
BQ    bus-70   100 166.  20.                   32.  -10. 0984                                                                                                                                                                                                                                              
B     bus-71   100 1                                                                                                                                                                                                                                                                                       
BQ    bus-72   100 1                      -12. 100. -100.0980                                                                                                                                                                                                                                              
BQ    bus-73   100 1                      -6.  100. -100.0991                                                                                                                                                                                                                                              
BQ    bus-74   100 168.  27.      12.          9.   -6.  0958                                                                                                                                                                                                                                              
B     bus-75   100 147.  11.                                                                                                                                                                                                                                                                               
BQ    bus-76   100 168.  36.                   23.  -8.  0943                                                                                                                                                                                                                                              
BQ    bus-77   100 161.  28.                   70.  -20. 1006                                                                                                                                                                                                                                              
B     bus-78   100 171.  26.                                                                                                                                                                                                                                                                               
B     bus-79   100 139.  32.      20.                                                                                                                                                                                                                                                                      
BQ    bus-80   100 1130. 26.              477. 280. -165.1040                                                                                                                                                                                                                                              
B     bus-81   100 1                                                                                                                                                                                                                                                                                       
B     bus-82   100 154.  27.      20.                                                                                                                                                                                                                                                                      
B     bus-83   100 120.  10.      10.                                                                                                                                                                                                                                                                      
B     bus-84   100 111.  7.                                                                                                                                                                                                                                                                                
BQ    bus-85   100 124.  15.                   23.  -8.  0985                                                                                                                                                                                                                                              
B     bus-86   100 121.  10.                                                                                                                                                                                                                                                                               
BQ    bus-87   100 1                      4.   1000.-100.1015                                                                                                                                                                                                                                              
B     bus-88   100 148.  10.                                                                                                                                                                                                                                                                               
BQ    bus-89   100 1                      607. 300. -210.1005                                                                                                                                                                                                                                              
BQ    bus-90   100 178.  42.              -85. 300. -300.0985                                                                                                                                                                                                                                              
BQ    bus-91   100 1                      -10. 100. -100.0980                                                                                                                                                                                                                                              
BQ    bus-92   100 165.  10.                   9.   -3.  0990                                                                                                                                                                                                                                              
B     bus-93   100 112.  7.                                                                                                                                                                                                                                                                                
B     bus-94   100 130.  16.                                                                                                                                                                                                                                                                               
B     bus-95   100 142.  31.                                                                                                                                                                                                                                                                               
B     bus-96   100 138.  15.                                                                                                                                                                                                                                                                               
B     bus-97   100 115.  9.                                                                                                                                                                                                                                                                                
B     bus-98   100 134.  8.                                                                                                                                                                                                                                                                                
BQ    bus-99   100 1                      -42. 100. -100.1010                                                                                                                                                                                                                                              
BQ    bus-100  100 137.  18.              252. 155. -50. 1017                                                                                                                                                                                                                                              
B     bus-101  100 122.  15.                                                                                                                                                                                                                                                                               
B     bus-102  100 15.   3.                                                                                                                                                                                                                                                                                
BQ    bus-103  100 123.  16.              40.  40.  -15. 1010                                                                                                                                                                                                                                              
BQ    bus-104  100 138.  25.                   23.  -8.  0971                                                                                                                                                                                                                                              
BQ    bus-105  100 131.  26.      20.          23.  -8.  0965                                                                                                                                                                                                                                              
B     bus-106  100 143.  16.                                                                                                                                                                                                                                                                               
BQ    bus-107  100 128.  12.      6.      -22. 200. -200.0952                                                                                                                                                                                                                                              
B     bus-108  100 12.   1.                                                                                                                                                                                                                                                                                
B     bus-109  100 18.   3.                                                                                                                                                                                                                                                                                
BQ    bus-110  100 139.  30.      6.           23.  -8.  0973                                                                                                                                                                                                                                              
BQ    bus-111  100 1                      36.  1000.-100.0980                                                                                                                                                                                                                                              
BQ    bus-112  100 125.  13.              -43. 1000.-100.0975                                                                                                                                                                                                                                              
BQ    bus-113  100 1                      -6.  200. -100.0993                                                                                                                                                                                                                                              
B     bus-114  100 18.   3.                                                                                                                                                                                                                                                                                
B     bus-115  100 122.  7.                                                                                                                                                                                                                                                                                
BQ    bus-116  100 1                      -184.1000.-10001005                                                                                                                                                                                                                                              
B     bus-117  100 120.  8.                                                                                                                                                                                                                                                                                
B     bus-118  100 133.  15.                                                                                                                                                                                                                                                                               
-999
.234567890*234567890*234567890*234567890*234567890*234567890*234567890*234567890
.234567890*234567890*234567890*234567890*234567890*234567890*234567890*234567890
L     bus-1    100 bus-2    100       .0303 .0999       .0127                                                                                                                                                                                                                                              
L     bus-1    100 bus-3    100       .0129 .0424       .00541                                                                                                                                                                                                                                             
L     bus-4    100 bus-5    100       .00176.00798      .00105                                                                                                                                                                                                                                             
L     bus-3    100 bus-5    100       .0241 .108        .0142                                                                                                                                                                                                                                              
L     bus-5    100 bus-6    100       .0119 .054        .00713                                                                                                                                                                                                                                             
L     bus-6    100 bus-7    100       .00459.0208       .00275                                                                                                                                                                                                                                             
L     bus-8    100 bus-9    100       .00244.0305       .581                                                                                                                                                                                                                                               
L     bus-9    100 bus-10   100       .00258.0322       .615                                                                                                                                                                                                                                               
L     bus-4    100 bus-11   100       .0209 .0688       .00874                                                                                                                                                                                                                                             
L     bus-5    100 bus-11   100       .0203 .0682       .00869                                                                                                                                                                                                                                             
L     bus-11   100 bus-12   100       .00595.0196       .00251                                                                                                                                                                                                                                             
L     bus-2    100 bus-12   100       .0187 .0616       .00786                                                                                                                                                                                                                                             
L     bus-3    100 bus-12   100       .0484 .16         .0203                                                                                                                                                                                                                                              
L     bus-7    100 bus-12   100       .00862.034        .00437                                                                                                                                                                                                                                             
L     bus-11   100 bus-13   100       .02225.0731       .00938                                                                                                                                                                                                                                             
L     bus-12   100 bus-14   100       .0215 .0707       .00908                                                                                                                                                                                                                                             
L     bus-13   100 bus-15   100       .0744 .2444       .03134                                                                                                                                                                                                                                             
L     bus-14   100 bus-15   100       .0595 .195        .0251                                                                                                                                                                                                                                              
L     bus-12   100 bus-16   100       .0212 .0834       .0107                                                                                                                                                                                                                                              
L     bus-15   100 bus-17   100       .0132 .0437       .0222                                                                                                                                                                                                                                              
L     bus-16   100 bus-17   100       .0454 .1801       .0233                                                                                                                                                                                                                                              
L     bus-17   100 bus-18   100       .0123 .0505       .00649                                                                                                                                                                                                                                             
L     bus-18   100 bus-19   100       .01119.0493       .00571                                                                                                                                                                                                                                             
L     bus-19   100 bus-20   100       .0252 .117        .0149                                                                                                                                                                                                                                              
L     bus-15   100 bus-19   100       .012  .0394       .00505                                                                                                                                                                                                                                             
L     bus-20   100 bus-21   100       .0183 .0849       .0108                                                                                                                                                                                                                                              
L     bus-21   100 bus-22   100       .0209 .097        .0123                                                                                                                                                                                                                                              
L     bus-22   100 bus-23   100       .0342 .159        .0202                                                                                                                                                                                                                                              
L     bus-23   100 bus-24   100       .0135 .0492       .0249                                                                                                                                                                                                                                              
L     bus-23   100 bus-25   100       .0156 .08         .0432                                                                                                                                                                                                                                              
L     bus-25   100 bus-27   100       .0318 .163        .0882                                                                                                                                                                                                                                              
L     bus-27   100 bus-28   100       .01913.0855       .0108                                                                                                                                                                                                                                              
L     bus-28   100 bus-29   100       .0237 .0943       .0119                                                                                                                                                                                                                                              
L     bus-8    100 bus-30   100       .00431.0504       .257                                                                                                                                                                                                                                               
L     bus-26   100 bus-30   100       .00799.086        .454                                                                                                                                                                                                                                               
L     bus-17   100 bus-31   100       .0474 .1563       .01995                                                                                                                                                                                                                                             
L     bus-29   100 bus-31   100       .0108 .0331       .00415                                                                                                                                                                                                                                             
L     bus-23   100 bus-32   100       .0317 .1153       .05865                                                                                                                                                                                                                                             
L     bus-31   100 bus-32   100       .0298 .0985       .01255                                                                                                                                                                                                                                             
L     bus-27   100 bus-32   100       .0229 .0755       .00963                                                                                                                                                                                                                                             
L     bus-15   100 bus-33   100       .038  .1244       .01597                                                                                                                                                                                                                                             
L     bus-19   100 bus-34   100       .0752 .247        .0316                                                                                                                                                                                                                                              
L     bus-35   100 bus-36   100       .00224.0102       .00134                                                                                                                                                                                                                                             
L     bus-35   100 bus-37   100       .011  .0497       .00659                                                                                                                                                                                                                                             
L     bus-33   100 bus-37   100       .0415 .142        .0183                                                                                                                                                                                                                                              
L     bus-34   100 bus-36   100       .00871.0268       .00284                                                                                                                                                                                                                                             
L     bus-34   100 bus-37   100       .00256.0094       .00492                                                                                                                                                                                                                                             
L     bus-37   100 bus-39   100       .0321 .106        .0135                                                                                                                                                                                                                                              
L     bus-37   100 bus-40   100       .0593 .168        .021                                                                                                                                                                                                                                               
L     bus-30   100 bus-38   100       .00464.054        .211                                                                                                                                                                                                                                               
L     bus-39   100 bus-40   100       .0184 .0605       .00776                                                                                                                                                                                                                                             
L     bus-40   100 bus-41   100       .0145 .0487       .00611                                                                                                                                                                                                                                             
L     bus-40   100 bus-42   100       .0555 .183        .0233                                                                                                                                                                                                                                              
L     bus-41   100 bus-42   100       .041  .135        .0172                                                                                                                                                                                                                                              
L     bus-43   100 bus-44   100       .0608 .2454       .03034                                                                                                                                                                                                                                             
L     bus-34   100 bus-43   100       .0413 .1681       .02113                                                                                                                                                                                                                                             
L     bus-44   100 bus-45   100       .0224 .0901       .0112                                                                                                                                                                                                                                              
L     bus-45   100 bus-46   100       .04   .1356       .0166                                                                                                                                                                                                                                              
L     bus-46   100 bus-47   100       .038  .127        .0158                                                                                                                                                                                                                                              
L     bus-46   100 bus-48   100       .0601 .189        .0236                                                                                                                                                                                                                                              
L     bus-47   100 bus-49   100       .0191 .0625       .00802                                                                                                                                                                                                                                             
L     bus-42   100 bus-49   100       .0715 .323        .043                                                                                                                                                                                                                                               
L     bus-42   100 bus-49   100A      .0715 .323        .043                                                                                                                                                                                                                                               
L     bus-45   100 bus-49   100       .0684 .186        .0222                                                                                                                                                                                                                                              
L     bus-48   100 bus-49   100       .0179 .0505       .00629                                                                                                                                                                                                                                             
L     bus-49   100 bus-50   100       .0267 .0752       .00937                                                                                                                                                                                                                                             
L     bus-49   100 bus-51   100       .0486 .137        .0171                                                                                                                                                                                                                                              
L     bus-51   100 bus-52   100       .0203 .0588       .00698                                                                                                                                                                                                                                             
L     bus-52   100 bus-53   100       .0405 .1635       .02029                                                                                                                                                                                                                                             
L     bus-53   100 bus-54   100       .0263 .122        .0155                                                                                                                                                                                                                                              
L     bus-49   100 bus-54   100       .073  .289        .0369                                                                                                                                                                                                                                              
L     bus-49   100 bus-54   100A      .0869 .291        .0365                                                                                                                                                                                                                                              
L     bus-54   100 bus-55   100       .0169 .0707       .0101                                                                                                                                                                                                                                              
L     bus-54   100 bus-56   100       .00275.00955      .00366                                                                                                                                                                                                                                             
L     bus-55   100 bus-56   100       .00488.0151       .00187                                                                                                                                                                                                                                             
L     bus-56   100 bus-57   100       .0343 .0966       .0121                                                                                                                                                                                                                                              
L     bus-50   100 bus-57   100       .0474 .134        .0166                                                                                                                                                                                                                                              
L     bus-56   100 bus-58   100       .0343 .0966       .0121                                                                                                                                                                                                                                              
L     bus-51   100 bus-58   100       .0255 .0719       .00894                                                                                                                                                                                                                                             
L     bus-54   100 bus-59   100       .0503 .2293       .0299                                                                                                                                                                                                                                              
...